power-flow-agent/results/ieee30/2026-09-26/no-llm/rule_based__smoke/traces/02_case30-multistep-001-s0.transcript.txt
==============================================================================
TRANSCRIPT  rule_based  |  none:rule_based  |  case30  |  case30-multistep-001-s0  run 0
==============================================================================
date: 2026-09-26   seed: 0   difficulty: multistep   tool variant: load_split

[system]   no LLM; deterministic parser (methods/deterministic/rule_based.py)

[user]
Load the IEEE 30-bus system, set the active load at bus 24 to 7 MW, disconnect the line between bus 5 and bus 7, and finally rerun the power flow, then report the bus with the lowest voltage magnitude.

[planner output]
[
 {
  "tool": "load_case",
  "args": {
   "case_name": "case30"
  }
 },
 {
  "tool": "modify_load",
  "args": {
   "bus_id": 24,
   "p_mw": 7.0
  }
 },
 {
  "tool": "disconnect_line",
  "args": {
   "from_bus": 5,
   "to_bus": 7
  }
 },
 {
  "tool": "run_powerflow",
  "args": {},
  "derive": {
   "kind": "min_voltage_bus"
  }
 }
]

--- round 1 ---
[tool load_case]   (gate: not applied)
{"case_name": "case30", "n_buses": 30, "n_generators": 6, "n_lines": 41, "n_loads": 20, "total_load_mw": 190.12, "total_gen_capacity_mw": 335.0}
[tool modify_load]   (gate: pass)
{"applied": {"tool": "modify_load", "bus_id": 24, "p_mw": 7.0, "q_mvar": null}, "converged": true, "total_generation_mw": 190.317, "total_load_mw": 187.856, "total_loss_mw": 2.462, "n_voltage_violations": 0, "n_thermal_violations": 1, "note": "Change applied and the network re-solved. Call run_powerflow to get the bus voltages and branch flows of the new state."}
[tool disconnect_line]   (gate: pass)
{"applied": {"tool": "disconnect_line", "from_bus": 5, "to_bus": 7, "in_service": false}, "converged": true, "total_generation_mw": 190.721, "total_load_mw": 187.856, "total_loss_mw": 2.865, "n_voltage_violations": 0, "n_thermal_violations": 6, "note": "Change applied and the network re-solved. Call run_powerflow to get the bus voltages and branch flows of the new state."}
[tool run_powerflow]   (gate: pass)
{"case_name": "case30", "converged": true, "bus_voltages": [{"bus_id": 1, "vm_pu": 1.0, "va_deg": 0.0, "is_violation": false, "violation_type": null}, {"bus_id": 2, "vm_pu": 1.0, "va_deg": -0.212, "is_violation": false, "violation_type": null}, {"bus_id": 3, "vm_pu": 0.979151, "va_deg": -1.682, "is_violation": false, "violation_type": null}, {"bus_id": 4, "vm_pu": 0.975354, "va_deg": -1.987, "is_violation": false, "violation_type": null}, {"bus_id": 5, "vm_pu": 1.002385, "va_deg": -0.246, "is_violation": false, "violation_type": null}, {"bus_id": 6, "vm_pu": 0.966105, "va_deg": -2.621, "is_violation": false, "violation_type": null}, {"bus_id": 7, "vm_pu": 0.950617, "va_deg": -3.528, "is_violation": false, "violation_type": null}, {"bus_id": 8, "vm_pu": 0.952535, "va_deg": -3.123, "is_violation": false, "violation_type": null}, {"bus_id": 9, "vm_pu": 0.976988, "va_deg": -3.226, "is_violation": false, "violation_type": null}, {"bus_id": 10, "vm_pu": 0.982731, "va_deg": -3.537, "is_violation": false, "violation_type": null}, {"bus_id": 11, "vm_pu": 0.976988, "va_deg": -3.226, "is_violation": false, "violation_type": null}, {"bus_id": 12, "vm_pu": 0.984757, "va_deg": -1.428, "is_violation": false, "violation_type": null}, {"bus_id": 13, "vm_pu": 1.0, "va_deg": 1.866, "is_violation": false, "violation_type": null}, {"bus_id": 14, "vm_pu": 0.976622, "va_deg": -2.225, "is_violation": false, "violation_type": null}, {"bus_id": 15, "vm_pu": 0.979522, "va_deg": -2.303, "is_violation": false, "violation_type": null}, {"bus_id": 16, "vm_pu": 0.976023, "va_deg": -2.66, "is_violation": false, "violation_type": null}, {"bus_id": 17, "vm_pu": 0.975392, "va_deg": -3.506, "is_violation": false, "violation_type": null}, {"bus_id": 18, "vm_pu": 0.966923, "va_deg": -3.555, "is_violation": false, "violation_type": null}, {"bus_id": 19, "vm_pu": 0.963527, "va_deg": -4.074, "is_violation": false, "violation_type": null}, {"bus_id": 20, "vm_pu": 0.967509, "va_deg": -3.993, "is_violation": false, "violation_type": null}, {"bus_id": 21, "vm_pu": 0.993259, "va_deg": -3.661, "is_violation": false, "violation_type": null}, {"bus_id": 22, "vm_pu": 1.0, "va_deg": -3.581, "is_violation": false, "violation_type": null}, {"bus_id": 23, "vm_pu": 1.0, "va_deg": -1.717, "is_violation": false, "violation_type": null}, {"bus_id": 24, "vm_pu": 0.989117, "va_deg": -2.703, "is_violation": false, "violation_type": null}, {"bus_id": 25, "vm_pu": 0.990455, "va_deg": -1.86, "is_violation": false, "violation_type": null}, {"bus_id": 26, "vm_pu": 0.972547, "va_deg": -2.306, "is_violation": false, "violation_type": null}, {"bus_id": 27, "vm_pu": 1.0, "va_deg": -1.06, "is_violation": false, "violation_type": null}, {"bus_id": 28, "vm_pu": 0.96822, "va_deg": -2.627, "is_violation": false, "violation_type": null}, {"bus_id": 29, "vm_pu": 0.978764, "va_deg": -2.406, "is_violation": false, "violation_type": null}, {"bus_id": 30, "vm_pu": 0.967131, "va_deg": -3.319, "is_violation": false, "violation_type": null}], "line_flows": [{"line_id": 0, "from_bus": 1, "to_bus": 2, "p_from_mw": 5.557, "q_from_mvar": -3.341, "loading_percent": 43.15, "is_violation": false}, {"line_id": 1, "from_bus": 1, "to_bus": 3, "p_from_mw": 16.899, "q_from_mvar": 5.748, "loading_percent": 91.38, "is_violation": false}, {"line_id": 2, "from_bus": 2, "to_bus": 4, "p_from_mw": 20.434, "q_from_mvar": 6.561, "loading_percent": 101.65, "is_violation": true}, {"line_id": 3, "from_bus": 3, "to_bus": 4, "p_from_mw": 14.154, "q_from_mvar": 5.788, "loading_percent": 92.01, "is_violation": false}, {"line_id": 4, "from_bus": 2, "to_bus": 5, "p_from_mw": 0.001, "q_from_mvar": -2.193, "loading_percent": 12.09, "is_violation": false}, {"line_id": 5, "from_bus": 2, "to_bus": 6, "p_from_mw": 26.096, "q_from_mvar": 9.607, "loading_percent": 103.04, "is_violation": true}, {"line_id": 6, "from_bus": 4, "to_bus": 6, "p_from_mw": 29.896, "q_from_mvar": 15.224, "loading_percent": 106.44, "is_violation": true}, {"line_id": 7, "from_bus": 5, "to_bus": 7, "p_from_mw": 0.0, "q_from_mvar": 0.0, "loading_percent": 0.0, "is_violation": false}, {"line_id": 8, "from_bus": 6, "to_bus": 7, "p_from_mw": 22.128, "q_from_mvar": 10.083, "loading_percent": 198.58, "is_violation": true}, {"line_id": 9, "from_bus": 6, "to_bus": 8, "p_from_mw": 26.683, "q_from_mvar": 26.191, "loading_percent": 85.89, "is_violation": false}, {"line_id": 10, "from_bus": 6, "to_bus": 9, "p_from_mw": 4.743, "q_from_mvar": -4.982, "loading_percent": 82.23, "is_violation": false}, {"line_id": 11, "from_bus": 6, "to_bus": 10, "p_from_mw": 2.71, "q_from_mvar": -2.847, "loading_percent": 82.23, "is_violation": false}, {"line_id": 12, "from_bus": 9, "to_bus": 11, "p_from_mw": 0.0, "q_from_mvar": 0.0, "loading_percent": 0.0, "is_violation": false}, {"line_id": 13, "from_bus": 9, "to_bus": 10, "p_from_mw": 4.743, "q_from_mvar": -5.088, "loading_percent": 82.54, "is_violation": false}, {"line_id": 14, "from_bus": 4, "to_bus": 12, "p_from_mw": -3.6, "q_from_mvar": -3.51, "loading_percent": 153.29, "is_violation": true}, {"line_id": 15, "from_bus": 12, "to_bus": 13, "p_from_mw": -40.414, "q_from_mvar": -9.56, "loading_percent": 87.11, "is_violation": false}, {"line_id": 16, "from_bus": 12, "to_bus": 14, "p_from_mw": 5.426, "q_from_mvar": 0.613, "loading_percent": 80.02, "is_violation": false}, {"line_id": 17, "from_bus": 12, "to_bus": 15, "p_from_mw": 10.47, "q_from_mvar": -1.586, "loading_percent": 88.84, "is_violation": false}, {"line_id": 18, "from_bus": 12, "to_bus": 16, "p_from_mw": 10.239, "q_from_mvar": -0.196, "loading_percent": 88.43, "is_violation": false}, {"line_id": 19, "from_bus": 14, "to_bus": 15, "p_from_mw": -0.411, "q_from_mvar": -0.964, "loading_percent": 43.96, "is_violation": false}, {"line_id": 20, "from_bus": 16, "to_bus": 17, "p_from_mw": 6.422, "q_from_mvar": -2.325, "loading_percent": 90.29, "is_violation": false}, {"line_id": 21, "from_bus": 15, "to_bus": 18, "p_from_mw": 9.81, "q_from_mvar": 0.808, "loading_percent": 85.63, "is_violation": false}, {"line_id": 22, "from_bus": 18, "to_bus": 19, "p_from_mw": 6.325, "q_from_mvar": -0.363, "loading_percent": 86.23, "is_violation": false}, {"line_id": 23, "from_bus": 19, "to_bus": 20, "p_from_mw": -3.569, "q_from_mvar": -3.951, "loading_percent": 81.0, "is_violation": false}, {"line_id": 24, "from_bus": 10, "to_bus": 20, "p_from_mw": 5.628, "q_from_mvar": 4.726, "loading_percent": 78.29, "is_violation": false}, {"line_id": 25, "from_bus": 10, "to_bus": 17, "p_from_mw": 2.393, "q_from_mvar": 8.119, "loading_percent": 77.89, "is_violation": false}, {"line_id": 26, "from_bus": 10, "to_bus": 21, "p_from_mw": -2.809, "q_from_mvar": -13.574, "loading_percent": 93.35, "is_violation": false}, {"line_id": 27, "from_bus": 10, "to_bus": 22, "p_from_mw": -3.927, "q_from_mvar": -9.481, "loading_percent": 88.5, "is_violation": false}, {"line_id": 28, "from_bus": 21, "to_bus": 22, "p_from_mw": -18.942, "q_from_mvar": -24.0, "loading_percent": 80.7, "is_violation": false}, {"line_id": 29, "from_bus": 15, "to_bus": 23, "p_from_mw": -8.004, "q_from_mvar": -6.002, "loading_percent": 78.08, "is_violation": false}, {"line_id": 30, "from_bus": 22, "to_bus": 24, "p_from_mw": -3.005, "q_from_mvar": 8.114, "loading_percent": 85.71, "is_violation": false}, {"line_id": 31, "from_bus": 23, "to_bus": 24, "p_from_mw": 6.713, "q_from_mvar": 0.853, "loading_percent": 75.82, "is_violation": false}, {"line_id": 32, "from_bus": 24, "to_bus": 25, "p_from_mw": -3.442, "q_from_mvar": 1.613, "loading_percent": 71.67, "is_violation": false}, {"line_id": 33, "from_bus": 25, "to_bus": 26, "p_from_mw": 3.525, "q_from_mvar": 2.356, "loading_percent": 79.52, "is_violation": false}, {"line_id": 34, "from_bus": 25, "to_bus": 27, "p_from_mw": -6.995, "q_from_mvar": -0.792, "loading_percent": 75.41, "is_violation": false}, {"line_id": 35, "from_bus": 28, "to_bus": 27, "p_from_mw": -6.619, "q_from_mvar": -7.602, "loading_percent": 93.5, "is_violation": false}, {"line_id": 36, "from_bus": 27, "to_bus": 29, "p_from_mw": 6.398, "q_from_mvar": 1.769, "loading_percent": 82.98, "is_violation": false}, {"line_id": 37, "from_bus": 27, "to_bus": 30, "p_from_mw": 7.272, "q_from_mvar": 1.725, "loading_percent": 81.72, "is_violation": false}, {"line_id": 38, "from_bus": 29, "to_bus": 30, "p_from_mw": 3.672, "q_from_mvar": 0.599, "loading_percent": 79.71, "is_violation": false}, {"line_id": 39, "from_bus": 8, "to_bus": 28, "p_from_mw": -5.707, "q_from_mvar": -6.648, "loading_percent": 86.83, "is_violation": false}, {"line_id": 40, "from_bus": 6, "to_bus": 28, "p_from_mw": -0.867, "q_from_mvar": -3.583, "loading_percent": 105.04, "is_violation": true}], "total_generation_mw": 190.721, "total_load_mw": 187.856, "total_loss_mw": 2.865, "voltage_violations": [], "thermal_violations": [{"line_id": 2, "from_bus": 2, "to_bus": 4, "p_from_mw": 20.434, "q_from_mvar": 6.561, "loading_percent": 101.65, "is_violation": true}, {"line_id": 5, "from_bus": 2, "to_bus": 6, "p_from_mw": 26.096, "q_from_mvar": 9.607, "loading_percent": 103.04, "is_violation": true}, {"line_id": 6, "from_bus": 4, "to_bus": 6, "p_from_mw": 29.896, "q_from_mvar": 15.224, "loading_percent": 106.44, "is_violation": true}, {"line_id": 8, "from_bus": 6, "to_bus": 7, "p_from_mw": 22.128, "q_from_mvar": 10.083, "loading_percent": 198.58, "is_violation": true}, {"line_id": 14, "from_bus": 4, "to_bus": 12, "p_from_mw": -3.6, "q_from_mvar": -3.51, "loading_percent": 153.29, "is_violation": true}, {"line_id": 40, "from_bus": 6, "to_bus": 28, "p_from_mw": -0.867, "q_from_mvar": -3.583, "loading_percent": 105.04, "is_violation": true}], "summary_text": "", "solver_backend": "pandapower", "llm_prompt": null, "llm_response": null}

[final answer]
{"formulation": [{"tool": "load_case", "args": {"case_name": "case30"}}, {"tool": "modify_load", "args": {"bus_id": 24, "p_mw": 7.0}}, {"tool": "disconnect_line", "args": {"from_bus": 5, "to_bus": 7}}, {"tool": "run_powerflow", "args": {}}], "converged": true, "summary": "Loaded case30 (30 buses, 41 branches). modify_load: converged; load 187.856 MW, generation 190.317 MW, losses 2.462 MW; 0 voltage and 0 thermal violation(s). disconnect_line: converged; load 187.856 MW, generation 190.721 MW, losses 2.865 MW; 0 voltage and 0 thermal violation(s). run_powerflow: converged; load 187.856 MW, generation 190.721 MW, losses 2.865 MW; 0 voltage and 6 thermal violation(s). Minimum voltage: bus 7 at 0.9506 p.u.", "answer": "Minimum voltage: bus 7 at 0.9506 p.u.", "bus_voltages": [{"bus_id": 1, "vm_pu": 1.0, "va_deg": 0.0}, {"bus_id": 2, "vm_pu": 1.0, "va_deg": -0.212}, {"bus_id": 3, "vm_pu": 0.979151, "va_deg": -1.682}, {"bus_id": 4, "vm_pu": 0.975354, "va_deg": -1.987}, {"bus_id": 5, "vm_pu": 1.002385, "va_deg": -0.246}, {"bus_id": 6, "vm_pu": 0.966105, "va_deg": -2.621}, {"bus_id": 7, "vm_pu": 0.950617, "va_deg": -3.528}, {"bus_id": 8, "vm_pu": 0.952535, "va_deg": -3.123}, {"bus_id": 9, "vm_pu": 0.976988, "va_deg": -3.226}, {"bus_id": 10, "vm_pu": 0.982731, "va_deg": -3.537}, {"bus_id": 11, "vm_pu": 0.976988, "va_deg": -3.226}, {"bus_id": 12, "vm_pu": 0.984757, "va_deg": -1.428}, {"bus_id": 13, "vm_pu": 1.0, "va_deg": 1.866}, {"bus_id": 14, "vm_pu": 0.976622, "va_deg": -2.225}, {"bus_id": 15, "vm_pu": 0.979522, "va_deg": -2.303}, {"bus_id": 16, "vm_pu": 0.976023, "va_deg": -2.66}, {"bus_id": 17, "vm_pu": 0.975392, "va_deg": -3.506}, {"bus_id": 18, "vm_pu": 0.966923, "va_deg": -3.555}, {"bus_id": 19, "vm_pu": 0.963527, "va_deg": -4.074}, {"bus_id": 20, "vm_pu": 0.967509, "va_deg": -3.993}, {"bus_id": 21, "vm_pu": 0.993259, "va_deg": -3.661}, {"bus_id": 22, "vm_pu": 1.0, "va_deg": -3.581}, {"bus_id": 23, "vm_pu": 1.0, "va_deg": -1.717}, {"bus_id": 24, "vm_pu": 0.989117, "va_deg": -2.703}, {"bus_id": 25, "vm_pu": 0.990455, "va_deg": -1.86}, {"bus_id": 26, "vm_pu": 0.972547, "va_deg": -2.306}, {"bus_id": 27, "vm_pu": 1.0, "va_deg": -1.06}, {"bus_id": 28, "vm_pu": 0.96822, "va_deg": -2.627}, {"bus_id": 29, "vm_pu": 0.978764, "va_deg": -2.406}, {"bus_id": 30, "vm_pu": 0.967131, "va_deg": -3.319}], "line_flows": [{"line_id": 0, "from_bus": 1, "to_bus": 2, "p_from_mw": 5.557, "loading_percent": 43.15}, {"line_id": 1, "from_bus": 1, "to_bus": 3, "p_from_mw": 16.899, "loading_percent": 91.38}, {"line_id": 2, "from_bus": 2, "to_bus": 4, "p_from_mw": 20.434, "loading_percent": 101.65}, {"line_id": 3, "from_bus": 3, "to_bus": 4, "p_from_mw": 14.154, "loading_percent": 92.01}, {"line_id": 4, "from_bus": 2, "to_bus": 5, "p_from_mw": 0.001, "loading_percent": 12.09}, {"line_id": 5, "from_bus": 2, "to_bus": 6, "p_from_mw": 26.096, "loading_percent": 103.04}, {"line_id": 6, "from_bus": 4, "to_bus": 6, "p_from_mw": 29.896, "loading_percent": 106.44}, {"line_id": 7, "from_bus": 5, "to_bus": 7, "p_from_mw": 0.0, "loading_percent": 0.0}, {"line_id": 8, "from_bus": 6, "to_bus": 7, "p_from_mw": 22.128, "loading_percent": 198.58}, {"line_id": 9, "from_bus": 6, "to_bus": 8, "p_from_mw": 26.683, "loading_percent": 85.89}, {"line_id": 10, "from_bus": 6, "to_bus": 9, "p_from_mw": 4.743, "loading_percent": 82.23}, {"line_id": 11, "from_bus": 6, "to_bus": 10, "p_from_mw": 2.71, "loading_percent": 82.23}, {"line_id": 12, "from_bus": 9, "to_bus": 11, "p_from_mw": 0.0, "loading_percent": 0.0}, {"line_id": 13, "from_bus": 9, "to_bus": 10, "p_from_mw": 4.743, "loading_percent": 82.54}, {"line_id": 14, "from_bus": 4, "to_bus": 12, "p_from_mw": -3.6, "loading_percent": 153.29}, {"line_id": 15, "from_bus": 12, "to_bus": 13, "p_from_mw": -40.414, "loading_percent": 87.11}, {"line_id": 16, "from_bus": 12, "to_bus": 14, "p_from_mw": 5.426, "loading_percent": 80.02}, {"line_id": 17, "from_bus": 12, "to_bus": 15, "p_from_mw": 10.47, "loading_percent": 88.84}, {"line_id": 18, "from_bus": 12, "to_bus": 16, "p_from_mw": 10.239, "loading_percent": 88.43}, {"line_id": 19, "from_bus": 14, "to_bus": 15, "p_from_mw": -0.411, "loading_percent": 43.96}, {"line_id": 20, "from_bus": 16, "to_bus": 17, "p_from_mw": 6.422, "loading_percent": 90.29}, {"line_id": 21, "from_bus": 15, "to_bus": 18, "p_from_mw": 9.81, "loading_percent": 85.63}, {"line_id": 22, "from_bus": 18, "to_bus": 19, "p_from_mw": 6.325, "loading_percent": 86.23}, {"line_id": 23, "from_bus": 19, "to_bus": 20, "p_from_mw": -3.569, "loading_percent": 81.0}, {"line_id": 24, "from_bus": 10, "to_bus": 20, "p_from_mw": 5.628, "loading_percent": 78.29}, {"line_id": 25, "from_bus": 10, "to_bus": 17, "p_from_mw": 2.393, "loading_percent": 77.89}, {"line_id": 26, "from_bus": 10, "to_bus": 21, "p_from_mw": -2.809, "loading_percent": 93.35}, {"line_id": 27, "from_bus": 10, "to_bus": 22, "p_from_mw": -3.927, "loading_percent": 88.5}, {"line_id": 28, "from_bus": 21, "to_bus": 22, "p_from_mw": -18.942, "loading_percent": 80.7}, {"line_id": 29, "from_bus": 15, "to_bus": 23, "p_from_mw": -8.004, "loading_percent": 78.08}, {"line_id": 30, "from_bus": 22, "to_bus": 24, "p_from_mw": -3.005, "loading_percent": 85.71}, {"line_id": 31, "from_bus": 23, "to_bus": 24, "p_from_mw": 6.713, "loading_percent": 75.82}, {"line_id": 32, "from_bus": 24, "to_bus": 25, "p_from_mw": -3.442, "loading_percent": 71.67}, {"line_id": 33, "from_bus": 25, "to_bus": 26, "p_from_mw": 3.525, "loading_percent": 79.52}, {"line_id": 34, "from_bus": 25, "to_bus": 27, "p_from_mw": -6.995, "loading_percent": 75.41}, {"line_id": 35, "from_bus": 28, "to_bus": 27, "p_from_mw": -6.619, "loading_percent": 93.5}, {"line_id": 36, "from_bus": 27, "to_bus": 29, "p_from_mw": 6.398, "loading_percent": 82.98}, {"line_id": 37, "from_bus": 27, "to_bus": 30, "p_from_mw": 7.272, "loading_percent": 81.72}, {"line_id": 38, "from_bus": 29, "to_bus": 30, "p_from_mw": 3.672, "loading_percent": 79.71}, {"line_id": 39, "from_bus": 8, "to_bus": 28, "p_from_mw": -5.707, "loading_percent": 86.83}, {"line_id": 40, "from_bus": 6, "to_bus": 28, "p_from_mw": -0.867, "loading_percent": 105.04}], "total_generation_mw": 190.721, "total_load_mw": 187.856, "total_loss_mw": 2.865, "violations": {"voltage": [], "thermal": [{"line_id": 2, "loading_percent": 101.65}, {"line_id": 5, "loading_percent": 103.04}, {"line_id": 6, "loading_percent": 106.44}, {"line_id": 8, "loading_percent": 198.58}, {"line_id": 14, "loading_percent": 153.29}, {"line_id": 40, "loading_percent": 105.04}]}, "next_step": "Review the listed violations and consider remedial actions.", "cannot_answer": null}
